Circuit: *** SPICE deck for cell Gate2S1_sim{sch} from library SCL

Vg: both pins shorted together -- ignoring.
Warning: toxe, toxp and dtox all given and toxe != toxp + dtox; dtox ignored.
Direct Newton iteration for .op point succeeded.

tpdr=7.18279e-010 FROM 5.7e-009 TO 6.41828e-009
tpdf=5.06422e-010 FROM 3e-010 TO 8.06422e-010


Date: Tue Apr 12 14:52:25 2022
Total elapsed time: 0.172 seconds.

tnom = 27
temp = 27
method = modified trap
totiter = 3112
traniter = 3100
tranpoints = 1368
accept = 1256
rejected = 112
matrix size = 44
fillins = 0
solver = Normal
Matrix Compiler1: 4.74 KB object code size  1.7/0.6/[0.3]
Matrix Compiler2: 5.12 KB object code size  0.6/0.8/[0.4]

