Circuit: *** SPICE deck for cell Gate6S1_sim{sch} from library SCL

Vg: both pins shorted together -- ignoring.
Warning: toxe, toxp and dtox all given and toxe != toxp + dtox; dtox ignored.
Direct Newton iteration for .op point succeeded.

tpdr=1.05104e-009 FROM 5.7e-009 TO 6.75104e-009
tpdf=8.51459e-010 FROM 3e-010 TO 1.15146e-009


Date: Tue Apr 12 14:52:52 2022
Total elapsed time: 0.235 seconds.

tnom = 27
temp = 27
method = modified trap
totiter = 3516
traniter = 3498
tranpoints = 1339
accept = 1225
rejected = 114
matrix size = 71
fillins = 0
solver = Normal
Matrix Compiler1: 8.81 KB object code size  2.8/1.3/[0.7]
Matrix Compiler2: 8.96 KB object code size  1.1/1.4/[0.9]

