Circuit: *** SPICE deck for cell Gate6S2_sim{sch} from library SCL

Vg: both pins shorted together -- ignoring.
Warning: toxe, toxp and dtox all given and toxe != toxp + dtox; dtox ignored.
Direct Newton iteration for .op point succeeded.

tpdr=7.98904e-010 FROM 5.7e-009 TO 6.4989e-009
tpdf=7.02005e-010 FROM 3e-010 TO 1.00201e-009


Date: Tue Apr 12 14:52:57 2022
Total elapsed time: 0.249 seconds.

tnom = 27
temp = 27
method = modified trap
totiter = 3831
traniter = 3813
tranpoints = 1455
accept = 1295
rejected = 160
matrix size = 71
fillins = 0
solver = Normal
Matrix Compiler1: 8.81 KB object code size  3.0/1.1/[0.6]
Matrix Compiler2: 8.96 KB object code size  1.1/1.3/[0.9]

