Circuit: *** SPICE deck for cell Gate3S1_sim{sch} from library SCL

Vg: both pins shorted together -- ignoring.
Warning: toxe, toxp and dtox all given and toxe != toxp + dtox; dtox ignored.
Direct Newton iteration for .op point succeeded.

tpdr=1.19745e-009 FROM 5.7e-009 TO 6.89745e-009
tpdf=2.37314e-009 FROM 3e-010 TO 2.67314e-009


Date: Tue Apr 12 14:52:29 2022
Total elapsed time: 0.157 seconds.

tnom = 27
temp = 27
method = modified trap
totiter = 3107
traniter = 3091
tranpoints = 1352
accept = 1246
rejected = 106
matrix size = 44
fillins = 0
solver = Normal
Matrix Compiler1: 4.63 KB object code size  1.4/0.6/[0.3]
Matrix Compiler2: 5.03 KB object code size  0.6/0.7/[0.4]

