Circuit: *** SPICE deck for cell Gate7S2_sim{sch} from library SCL

Vg: both pins shorted together -- ignoring.
Warning: toxe, toxp and dtox all given and toxe != toxp + dtox; dtox ignored.
Direct Newton iteration for .op point succeeded.

tpdr=9.10582e-010 FROM 5.7e-009 TO 6.61058e-009
tpdf=3.61062e-009 FROM 3e-010 TO 3.91062e-009


Date: Tue Apr 12 14:53:07 2022
Total elapsed time: 0.187 seconds.

tnom = 27
temp = 27
method = modified trap
totiter = 2961
traniter = 2939
tranpoints = 1327
accept = 1229
rejected = 98
matrix size = 73
fillins = 0
solver = Normal
Matrix Compiler1: 9.11 KB object code size  3.2/1.2/[0.7]
Matrix Compiler2: 9.16 KB object code size  1.1/1.3/[0.9]

