Circuit: *** SPICE deck for cell Gate5S1_sim{sch} from library SCL

Vg: both pins shorted together -- ignoring.
Warning: toxe, toxp and dtox all given and toxe != toxp + dtox; dtox ignored.
Direct Newton iteration for .op point succeeded.

tpdr=1.28825e-009 FROM 5.7e-009 TO 6.98825e-009
tpdf=2.10168e-009 FROM 3e-010 TO 2.40168e-009


Date: Tue Apr 12 22:01:57 2022
Total elapsed time: 0.184 seconds.

tnom = 27
temp = 27
method = modified trap
totiter = 3250
traniter = 3225
tranpoints = 1373
accept = 1256
rejected = 117
matrix size = 55
fillins = 0
solver = Normal
Matrix Compiler1: 5.88 KB object code size  1.9/0.8/[0.5]
Matrix Compiler2: 6.41 KB object code size  0.8/1.0/[0.6]

