Circuit: *** SPICE deck for cell Gate3S1_sim{sch} from library SCL

Vg: both pins shorted together -- ignoring.
Warning: toxe, toxp and dtox all given and toxe != toxp + dtox; dtox ignored.
Direct Newton iteration for .op point succeeded.

tpdr=9.80154e-010 FROM 5.7e-009 TO 6.68015e-009
tpdf=2.16909e-009 FROM 3e-010 TO 2.46909e-009


Date: Tue Apr 12 22:44:04 2022
Total elapsed time: 0.193 seconds.

tnom = 27
temp = 27
method = modified trap
totiter = 3174
traniter = 3158
tranpoints = 1377
accept = 1259
rejected = 118
matrix size = 44
fillins = 0
solver = Normal
Matrix Compiler1: 4.63 KB object code size  1.4/0.6/[0.4]
Matrix Compiler2: 5.03 KB object code size  0.6/0.8/[0.5]

