Circuit: *** SPICE deck for cell Gate4S1_sim{sch} from library SCL-(3)

Vg: both pins shorted together -- ignoring.
Warning: toxe, toxp and dtox all given and toxe != toxp + dtox; dtox ignored.
Direct Newton iteration for .op point succeeded.

tpdr=8.40315e-010 FROM 5.7e-009 TO 6.54032e-009
tpdf=1.07819e-009 FROM 3e-010 TO 1.37819e-009


Date: Tue Apr 12 22:43:00 2022
Total elapsed time: 0.368 seconds.

tnom = 27
temp = 27
method = modified trap
totiter = 2974
traniter = 2961
tranpoints = 1264
accept = 1199
rejected = 65
matrix size = 55
fillins = 0
solver = Normal
Matrix Compiler1: 6.24 KB object code size  2.2/1.6/[0.6]
Matrix Compiler2: 6.52 KB object code size  1.1/1.9/[0.7]

