Circuit: *** SPICE deck for cell Gate5S1_sim{sch} from library SCL

Vg: both pins shorted together -- ignoring.
Warning: toxe, toxp and dtox all given and toxe != toxp + dtox; dtox ignored.
Direct Newton iteration for .op point succeeded.

tpdr=1.07032e-009 FROM 5.7e-009 TO 6.77032e-009
tpdf=1.91848e-009 FROM 3e-010 TO 2.21848e-009


Date: Tue Apr 12 22:09:41 2022
Total elapsed time: 0.183 seconds.

tnom = 27
temp = 27
method = modified trap
totiter = 3110
traniter = 3085
tranpoints = 1318
accept = 1226
rejected = 92
matrix size = 55
fillins = 0
solver = Normal
Matrix Compiler1: 5.88 KB object code size  2.1/0.8/[0.5]
Matrix Compiler2: 6.41 KB object code size  0.7/1.0/[0.6]

