Circuit: *** SPICE deck for cell Gate3S2_sim{sch} from library SCL

Vg: both pins shorted together -- ignoring.
Warning: toxe, toxp and dtox all given and toxe != toxp + dtox; dtox ignored.
Direct Newton iteration for .op point succeeded.

tpdr=8.64097e-010 FROM 5.7e-009 TO 6.5641e-009
tpdf=2.04956e-009 FROM 3e-010 TO 2.34956e-009


Date: Tue Apr 12 22:44:10 2022
Total elapsed time: 0.297 seconds.

tnom = 27
temp = 27
method = modified trap
totiter = 3259
traniter = 3244
tranpoints = 1426
accept = 1295
rejected = 131
matrix size = 44
fillins = 0
solver = Normal
Matrix Compiler1: 4.63 KB object code size  1.3/0.6/[0.3]
Matrix Compiler2: 5.03 KB object code size  0.6/0.7/[0.5]

