Circuit: *** SPICE deck for cell Gate1S1_sim{sch} from library SCL

Vg: both pins shorted together -- ignoring.
Warning: toxe, toxp and dtox all given and toxe != toxp + dtox; dtox ignored.
Direct Newton iteration for .op point succeeded.

tpdr=3.83899e-010 FROM 5.7e-009 TO 6.0839e-009
tpdf=3.71736e-010 FROM 3e-010 TO 6.71736e-010


Date: Tue Apr 12 22:43:40 2022
Total elapsed time: 0.097 seconds.

tnom = 27
temp = 27
method = modified trap
totiter = 2969
traniter = 2956
tranpoints = 1349
accept = 1238
rejected = 111
matrix size = 22
fillins = 0
solver = Normal
Matrix Compiler1: 2.20 KB object code size  0.7/0.4/[0.2]
Matrix Compiler2: 2.38 KB object code size  0.3/0.4/[0.2]

