Circuit: *** SPICE deck for cell Gate7S2_sim{sch} from library SCL-(3)

Vg: both pins shorted together -- ignoring.
Warning: toxe, toxp and dtox all given and toxe != toxp + dtox; dtox ignored.
Direct Newton iteration for .op point succeeded.

tpdr=8.80161e-010 FROM 5.7e-009 TO 6.58016e-009
tpdf=3.53063e-009 FROM 3e-010 TO 3.83063e-009


Date: Tue Apr 12 22:44:44 2022
Total elapsed time: 0.618 seconds.

tnom = 27
temp = 27
method = modified trap
totiter = 2980
traniter = 2958
tranpoints = 1339
accept = 1245
rejected = 94
matrix size = 73
fillins = 0
solver = Normal
Matrix Compiler1: 9.11 KB object code size  3.1/2.4/[0.8]
Matrix Compiler2: 9.16 KB object code size  1.5/6.8/[1.3]

