Circuit: *** SPICE deck for cell Gate5S2_sim{sch} from library SCL

Vg: both pins shorted together -- ignoring.
Warning: toxe, toxp and dtox all given and toxe != toxp + dtox; dtox ignored.
Direct Newton iteration for .op point succeeded.

tpdr=9.5659e-010 FROM 5.7e-009 TO 6.65659e-009
tpdf=1.81691e-009 FROM 3e-010 TO 2.11691e-009


Date: Tue Apr 12 22:09:45 2022
Total elapsed time: 0.199 seconds.

tnom = 27
temp = 27
method = modified trap
totiter = 3362
traniter = 3338
tranpoints = 1422
accept = 1286
rejected = 136
matrix size = 55
fillins = 0
solver = Normal
Matrix Compiler1: 5.88 KB object code size  2.0/0.8/[0.5]
Matrix Compiler2: 6.41 KB object code size  0.8/0.9/[0.6]

