Circuit: *** SPICE deck for cell Gate1S4_sim{sch} from library SCL

Vg: both pins shorted together -- ignoring.
Warning: toxe, toxp and dtox all given and toxe != toxp + dtox; dtox ignored.
Direct Newton iteration for .op point succeeded.

tpdr=2.10492e-010 FROM 5.7e-009 TO 5.91049e-009
tpdf=2.3014e-010 FROM 3e-010 TO 5.3014e-010


Date: Tue Apr 12 22:43:52 2022
Total elapsed time: 0.117 seconds.

tnom = 27
temp = 27
method = modified trap
totiter = 3297
traniter = 3284
tranpoints = 1455
accept = 1324
rejected = 131
matrix size = 22
fillins = 0
solver = Normal
Matrix Compiler1: 2.20 KB object code size  0.7/0.3/[0.2]
Matrix Compiler2: 2.38 KB object code size  0.3/0.4/[0.2]

