Circuit: *** SPICE deck for cell Gate7S1_sim{sch} from library SCL-(3)

Vg: both pins shorted together -- ignoring.
Warning: toxe, toxp and dtox all given and toxe != toxp + dtox; dtox ignored.
Direct Newton iteration for .op point succeeded.

tpdr=9.08261e-010 FROM 5.7e-009 TO 6.60826e-009
tpdf=3.62271e-009 FROM 3e-010 TO 3.92271e-009


Date: Tue Apr 12 22:44:32 2022
Total elapsed time: 0.333 seconds.

tnom = 27
temp = 27
method = modified trap
totiter = 2894
traniter = 2871
tranpoints = 1299
accept = 1206
rejected = 93
matrix size = 73
fillins = 0
solver = Normal
Matrix Compiler1: 9.11 KB object code size  2.6/1.6/[0.7]
Matrix Compiler2: off  [1.4]/1.8/1.6

