Circuit: *** SPICE deck for cell Gate2S1_sim{sch} from library SCL

Vg: both pins shorted together -- ignoring.
Warning: toxe, toxp and dtox all given and toxe != toxp + dtox; dtox ignored.
Direct Newton iteration for .op point succeeded.

tpdr=4.56401e-010 FROM 5.7e-009 TO 6.1564e-009
tpdf=3.58403e-010 FROM 3e-010 TO 6.58403e-010


Date: Tue Apr 12 22:43:56 2022
Total elapsed time: 0.177 seconds.

tnom = 27
temp = 27
method = modified trap
totiter = 3074
traniter = 3061
tranpoints = 1363
accept = 1256
rejected = 107
matrix size = 44
fillins = 0
solver = Normal
Matrix Compiler1: 4.74 KB object code size  1.6/0.6/[0.4]
Matrix Compiler2: 5.12 KB object code size  0.6/0.7/[0.4]

