Circuit: *** SPICE deck for cell Gate2S2_sim{sch} from library SCL

Vg: both pins shorted together -- ignoring.
Warning: toxe, toxp and dtox all given and toxe != toxp + dtox; dtox ignored.
Direct Newton iteration for .op point succeeded.

tpdr=3.29057e-010 FROM 5.7e-009 TO 6.02906e-009
tpdf=2.8244e-010 FROM 3e-010 TO 5.8244e-010


Date: Tue Apr 12 22:09:36 2022
Total elapsed time: 0.160 seconds.

tnom = 27
temp = 27
method = modified trap
totiter = 3194
traniter = 3182
tranpoints = 1420
accept = 1287
rejected = 133
matrix size = 44
fillins = 0
solver = Normal
Matrix Compiler1: 4.74 KB object code size  1.6/0.7/[0.4]
Matrix Compiler2: 5.12 KB object code size  0.8/0.8/[0.4]

