Circuit: *** SPICE deck for cell Gate6S1_sim{sch} from library SCL-(3)

Vg: both pins shorted together -- ignoring.
Warning: toxe, toxp and dtox all given and toxe != toxp + dtox; dtox ignored.
Direct Newton iteration for .op point succeeded.

tpdr=7.9809e-010 FROM 5.7e-009 TO 6.49809e-009
tpdf=6.98021e-010 FROM 3e-010 TO 9.98021e-010


Date: Tue Apr 12 22:43:56 2022
Total elapsed time: 0.249 seconds.

tnom = 27
temp = 27
method = modified trap
totiter = 3543
traniter = 3525
tranpoints = 1328
accept = 1220
rejected = 108
matrix size = 71
fillins = 0
solver = Normal
Matrix Compiler1: 8.81 KB object code size  2.6/1.7/[0.7]
Matrix Compiler2: 8.96 KB object code size  1.3/1.8/[1.3]

