Circuit: *** SPICE deck for cell Gate2S1_sim{sch} from library SCL

Vg: both pins shorted together -- ignoring.
Warning: toxe, toxp and dtox all given and toxe != toxp + dtox; dtox ignored.
Direct Newton iteration for .op point succeeded.

tpdr=6.75631e-010 FROM 5.25e-009 TO 5.92563e-009
tpdf=4.89542e-010 FROM 1.5e-010 TO 6.39542e-010


Date: Tue Apr 12 01:45:06 2022
Total elapsed time: 0.157 seconds.

tnom = 27
temp = 27
method = modified trap
totiter = 3324
traniter = 3312
tranpoints = 1437
accept = 1293
rejected = 144
matrix size = 44
fillins = 0
solver = Normal
Matrix Compiler1: 4.74 KB object code size  1.6/0.6/[0.3]
Matrix Compiler2: 5.12 KB object code size  0.6/0.7/[0.5]

