Circuit: *** SPICE deck for cell Gate5S1_sim{sch} from library SCL

Vg: both pins shorted together -- ignoring.
Warning: toxe, toxp and dtox all given and toxe != toxp + dtox; dtox ignored.
Direct Newton iteration for .op point succeeded.

tpdr=1.22216e-009 FROM 5.25e-009 TO 6.47216e-009
tpdf=2.14631e-009 FROM 1.5e-010 TO 2.29631e-009


Date: Tue Apr 12 22:02:40 2022
Total elapsed time: 0.196 seconds.

tnom = 27
temp = 27
method = modified trap
totiter = 3599
traniter = 3574
tranpoints = 1513
accept = 1371
rejected = 142
matrix size = 55
fillins = 0
solver = Normal
Matrix Compiler1: 5.88 KB object code size  1.9/0.8/[0.5]
Matrix Compiler2: 6.41 KB object code size  0.7/1.0/[0.6]

