Circuit: *** SPICE deck for cell Gate1S1_sim{sch} from library SCL

Vg: both pins shorted together -- ignoring.
Warning: toxe, toxp and dtox all given and toxe != toxp + dtox; dtox ignored.
Direct Newton iteration for .op point succeeded.

tpdr=5.93627e-010 FROM 5.25e-009 TO 5.84363e-009
tpdf=5.34105e-010 FROM 1.5e-010 TO 6.84105e-010


Date: Tue Apr 12 01:44:15 2022
Total elapsed time: 0.093 seconds.

tnom = 27
temp = 27
method = modified trap
totiter = 2944
traniter = 2932
tranpoints = 1352
accept = 1243
rejected = 109
matrix size = 22
fillins = 0
solver = Normal
Matrix Compiler1: 2.20 KB object code size  0.7/0.3/[0.2]
Matrix Compiler2: 2.38 KB object code size  0.3/0.4/[0.2]

