Circuit: *** SPICE deck for cell Gate6S2_sim{sch} from library SCL

Vg: both pins shorted together -- ignoring.
Warning: toxe, toxp and dtox all given and toxe != toxp + dtox; dtox ignored.
Direct Newton iteration for .op point succeeded.

tpdr=7.74746e-010 FROM 5.25e-009 TO 6.02475e-009
tpdf=5.97214e-010 FROM 1.5e-010 TO 7.47214e-010


Date: Tue Apr 12 01:31:43 2022
Total elapsed time: 0.410 seconds.

tnom = 27
temp = 27
method = modified trap
totiter = 4107
traniter = 4089
tranpoints = 1557
accept = 1371
rejected = 186
matrix size = 71
fillins = 0
solver = Normal
Matrix Compiler1: 8.81 KB object code size  2.7/1.1/[0.7]
Matrix Compiler2: 8.96 KB object code size  1.1/1.4/[0.8]

