Circuit: *** SPICE deck for cell Gate3S2_sim{sch} from library SCL

Vg: both pins shorted together -- ignoring.
Warning: toxe, toxp and dtox all given and toxe != toxp + dtox; dtox ignored.
Direct Newton iteration for .op point succeeded.

tpdr=9.23774e-010 FROM 5.25e-009 TO 6.17377e-009
tpdf=2.18377e-009 FROM 1.5e-010 TO 2.33377e-009


Date: Tue Apr 12 01:45:23 2022
Total elapsed time: 0.172 seconds.

tnom = 27
temp = 27
method = modified trap
totiter = 3659
traniter = 3644
tranpoints = 1595
accept = 1419
rejected = 176
matrix size = 44
fillins = 0
solver = Normal
Matrix Compiler1: 4.63 KB object code size  1.3/0.6/[0.3]
Matrix Compiler2: 5.03 KB object code size  0.6/0.8/[0.5]

