Circuit: *** SPICE deck for cell Gate1S4_sim{sch} from library SCL

Vg: both pins shorted together -- ignoring.
Warning: toxe, toxp and dtox all given and toxe != toxp + dtox; dtox ignored.
Direct Newton iteration for .op point succeeded.

tpdr=2.10311e-010 FROM 5.25e-009 TO 5.46031e-009
tpdf=2.43889e-010 FROM 1.5e-010 TO 3.93889e-010


Date: Tue Apr 12 01:44:56 2022
Total elapsed time: 0.125 seconds.

tnom = 27
temp = 27
method = modified trap
totiter = 3834
traniter = 3822
tranpoints = 1611
accept = 1439
rejected = 172
matrix size = 22
fillins = 0
solver = Normal
Matrix Compiler1: 2.20 KB object code size  0.8/0.3/[0.2]
Matrix Compiler2: 2.38 KB object code size  0.3/0.4/[0.2]

