Circuit: *** SPICE deck for cell Gate7S1_sim{sch} from library SCL

Vg: both pins shorted together -- ignoring.
Warning: toxe, toxp and dtox all given and toxe != toxp + dtox; dtox ignored.
Direct Newton iteration for .op point succeeded.

tpdr=7.62399e-010 FROM 5.25e-009 TO 6.0124e-009
tpdf=3.77623e-009 FROM 1.5e-010 TO 3.92623e-009


Date: Tue Apr 12 01:46:03 2022
Total elapsed time: 0.218 seconds.

tnom = 27
temp = 27
method = modified trap
totiter = 3129
traniter = 3106
tranpoints = 1378
accept = 1282
rejected = 96
matrix size = 73
fillins = 0
solver = Normal
Matrix Compiler1: 9.11 KB object code size  3.2/1.3/[0.7]
Matrix Compiler2: 9.16 KB object code size  1.2/1.3/[1.0]

