Circuit: *** SPICE deck for cell Gate1S2_sim{sch} from library SCL

Vg: both pins shorted together -- ignoring.
Limiting rise time of source vx to 5e-010
Limiting fall time of source vx to 5e-010
Warning: toxe, toxp and dtox all given and toxe != toxp + dtox; dtox ignored.
Direct Newton iteration for .op point succeeded.

tpdr=6.5648e-010 FROM 5.85e-009 TO 6.50648e-009
tpdf=5.62283e-010 FROM 3.5e-010 TO 9.12283e-010


Date: Tue Apr 12 02:22:44 2022
Total elapsed time: 0.246 seconds.

tnom = 27
temp = 27
method = modified trap
totiter = 3091
traniter = 3079
tranpoints = 1398
accept = 1266
rejected = 132
matrix size = 22
fillins = 0
solver = Normal
Matrix Compiler1: 2.20 KB object code size  0.8/0.5/[0.2]
Matrix Compiler2: 2.38 KB object code size  0.4/0.7/[0.3]

