Circuit: *** SPICE deck for cell Gate4S2_sim{sch} from library SCL

Vg: both pins shorted together -- ignoring.
Limiting rise time of source vw to 5e-010
Limiting fall time of source vw to 5e-010
Warning: toxe, toxp and dtox all given and toxe != toxp + dtox; dtox ignored.
Direct Newton iteration for .op point succeeded.

tpdr=1.08349e-009 FROM 5.85e-009 TO 6.93349e-009
tpdf=1.23025e-009 FROM 3.5e-010 TO 1.58025e-009


Date: Tue Apr 12 02:24:17 2022
Total elapsed time: 0.302 seconds.

tnom = 27
temp = 27
method = modified trap
totiter = 3242
traniter = 3230
tranpoints = 1395
accept = 1258
rejected = 137
matrix size = 55
fillins = 0
solver = Normal
Matrix Compiler1: 6.24 KB object code size  2.2/1.1/[0.5]
Matrix Compiler2: 6.52 KB object code size  1.0/1.4/[0.7]

