Circuit: *** SPICE deck for cell Gate6S1_sim{sch} from library SCL

Vg: both pins shorted together -- ignoring.
Limiting rise time of source vx to 5e-010
Limiting fall time of source vx to 5e-010
Warning: toxe, toxp and dtox all given and toxe != toxp + dtox; dtox ignored.
Direct Newton iteration for .op point succeeded.

tpdr=1.54928e-009 FROM 5.85e-009 TO 7.39928e-009
tpdf=1.16039e-009 FROM 3.5e-010 TO 1.51039e-009


Date: Tue Apr 12 02:24:29 2022
Total elapsed time: 0.417 seconds.

tnom = 27
temp = 27
method = modified trap
totiter = 3383
traniter = 3362
tranpoints = 1285
accept = 1193
rejected = 92
matrix size = 71
fillins = 0
solver = Normal
Matrix Compiler1: 8.81 KB object code size  2.9/1.5/[0.7]
Matrix Compiler2: off  [1.3]/1.9/1.9

