Circuit: *** SPICE deck for cell Gate7S2_sim{sch} from library SCL

Vg: both pins shorted together -- ignoring.
Limiting rise time of source vw to 5e-010
Limiting fall time of source vw to 5e-010
Warning: toxe, toxp and dtox all given and toxe != toxp + dtox; dtox ignored.
Direct Newton iteration for .op point succeeded.

tpdr=9.68709e-010 FROM 5.85e-009 TO 6.81871e-009
tpdf=3.76936e-009 FROM 3.5e-010 TO 4.11936e-009


Date: Tue Apr 12 02:25:12 2022
Total elapsed time: 0.209 seconds.

tnom = 27
temp = 27
method = modified trap
totiter = 2904
traniter = 2882
tranpoints = 1312
accept = 1216
rejected = 96
matrix size = 73
fillins = 0
solver = Normal
Matrix Compiler1: 9.11 KB object code size  3.4/2.2/[0.7]
Matrix Compiler2: 9.16 KB object code size  1.6/1.9/[1.2]

