Circuit: *** SPICE deck for cell Gate7S1_sim{sch} from library SCL

Vg: both pins shorted together -- ignoring.
Limiting rise time of source vw to 5e-010
Limiting fall time of source vw to 5e-010
Warning: toxe, toxp and dtox all given and toxe != toxp + dtox; dtox ignored.
Direct Newton iteration for .op point succeeded.

tpdr=9.04519e-010 FROM 5.85e-009 TO 6.75452e-009
tpdf=4.09393e-009 FROM 3.5e-010 TO 4.44393e-009


Date: Tue Apr 12 02:24:54 2022
Total elapsed time: 0.336 seconds.

tnom = 27
temp = 27
method = modified trap
totiter = 2811
traniter = 2788
tranpoints = 1266
accept = 1191
rejected = 75
matrix size = 73
fillins = 0
solver = Normal
Matrix Compiler1: 9.11 KB object code size  3.2/1.7/[0.8]
Matrix Compiler2: off  [1.4]/1.9/1.7

