Circuit: *** SPICE deck for cell Gate2S2_sim{sch} from library SCL

Vg: both pins shorted together -- ignoring.
Warning: toxe, toxp and dtox all given and toxe != toxp + dtox; dtox ignored.
Direct Newton iteration for .op point succeeded.

tpdr=6.74993e-010 FROM 5.25e-009 TO 5.92499e-009
tpdf=4.88402e-010 FROM 1.5e-010 TO 6.38402e-010


Date: Tue Apr 12 22:14:07 2022
Total elapsed time: 0.164 seconds.

tnom = 27
temp = 27
method = modified trap
totiter = 3696
traniter = 3684
tranpoints = 1589
accept = 1393
rejected = 196
matrix size = 44
fillins = 0
solver = Normal
Matrix Compiler1: 4.74 KB object code size  1.7/0.7/[0.3]
Matrix Compiler2: 5.12 KB object code size  0.7/0.7/[0.4]

