Circuit: *** SPICE deck for cell Gate1S1_sim{sch} from library SCL

Vg: both pins shorted together -- ignoring.
Warning: toxe, toxp and dtox all given and toxe != toxp + dtox; dtox ignored.
Direct Newton iteration for .op point succeeded.

tpdr=1.09176e-009 FROM 5.25e-009 TO 6.34176e-009
tpdf=8.82703e-010 FROM 1.5e-010 TO 1.0327e-009


Date: Tue Apr 12 02:04:13 2022
Total elapsed time: 0.108 seconds.

tnom = 27
temp = 27
method = modified trap
totiter = 3080
traniter = 3068
tranpoints = 1441
accept = 1282
rejected = 159
matrix size = 22
fillins = 0
solver = Normal
Matrix Compiler1: 2.20 KB object code size  0.8/0.5/[0.2]
Matrix Compiler2: 2.38 KB object code size  0.4/0.6/[0.3]

