Circuit: *** SPICE deck for cell Gate7S1_sim{sch} from library SCL

Vg: both pins shorted together -- ignoring.
Warning: toxe, toxp and dtox all given and toxe != toxp + dtox; dtox ignored.
Direct Newton iteration for .op point succeeded.

tpdr=6.72197e-010 FROM 5.25e-009 TO 5.9222e-009
tpdf=4.08755e-009 FROM 1.5e-010 TO 4.23755e-009


Date: Tue Apr 12 02:17:12 2022
Total elapsed time: 0.342 seconds.

tnom = 27
temp = 27
method = modified trap
totiter = 3076
traniter = 3053
tranpoints = 1361
accept = 1279
rejected = 82
matrix size = 73
fillins = 0
solver = Normal
Matrix Compiler1: 9.11 KB object code size  3.2/1.6/[0.9]
Matrix Compiler2: off  [1.4]/2.2/1.7

