Circuit: *** SPICE deck for cell Gate3S1_sim{sch} from library SCL

Vg: both pins shorted together -- ignoring.
Warning: toxe, toxp and dtox all given and toxe != toxp + dtox; dtox ignored.
Direct Newton iteration for .op point succeeded.

tpdr=1.37436e-009 FROM 5.25e-009 TO 6.62436e-009
tpdf=2.78665e-009 FROM 1.5e-010 TO 2.93665e-009


Date: Tue Apr 12 02:11:56 2022
Total elapsed time: 0.214 seconds.

tnom = 27
temp = 27
method = modified trap
totiter = 3450
traniter = 3434
tranpoints = 1513
accept = 1374
rejected = 139
matrix size = 44
fillins = 0
solver = Normal
Matrix Compiler1: 4.63 KB object code size  1.9/0.8/[0.3]
Matrix Compiler2: 5.03 KB object code size  0.8/1.0/[0.6]

