Circuit: *** SPICE deck for cell Gate1S4_sim{sch} from library SCL

Vg: both pins shorted together -- ignoring.
Warning: toxe, toxp and dtox all given and toxe != toxp + dtox; dtox ignored.
Direct Newton iteration for .op point succeeded.

tpdr=3.38671e-010 FROM 5.25e-009 TO 5.58867e-009
tpdf=3.47582e-010 FROM 1.5e-010 TO 4.97582e-010


Date: Tue Apr 12 02:10:32 2022
Total elapsed time: 0.141 seconds.

tnom = 27
temp = 27
method = modified trap
totiter = 3700
traniter = 3688
tranpoints = 1638
accept = 1429
rejected = 209
matrix size = 22
fillins = 0
solver = Normal
Matrix Compiler1: 2.20 KB object code size  0.7/0.5/[0.3]
Matrix Compiler2: 2.38 KB object code size  0.4/0.6/[0.3]

