Circuit: *** SPICE deck for cell Gate4S2_sim{sch} from library SCL

Vg: both pins shorted together -- ignoring.
Warning: toxe, toxp and dtox all given and toxe != toxp + dtox; dtox ignored.
Direct Newton iteration for .op point succeeded.

tpdr=1.01898e-009 FROM 5.25e-009 TO 6.26898e-009
tpdf=1.26362e-009 FROM 1.5e-010 TO 1.41362e-009


Date: Tue Apr 12 02:14:49 2022
Total elapsed time: 0.306 seconds.

tnom = 27
temp = 27
method = modified trap
totiter = 3602
traniter = 3590
tranpoints = 1527
accept = 1364
rejected = 163
matrix size = 55
fillins = 0
solver = Normal
Matrix Compiler1: 6.24 KB object code size  1.8/1.1/[0.5]
Matrix Compiler2: 6.52 KB object code size  0.9/1.2/[0.8]

