Circuit: *** SPICE deck for cell Gate3S2_sim{sch} from library SCL

Vg: both pins shorted together -- ignoring.
Warning: toxe, toxp and dtox all given and toxe != toxp + dtox; dtox ignored.
Direct Newton iteration for .op point succeeded.

tpdr=1.13191e-009 FROM 5.25e-009 TO 6.38191e-009
tpdf=2.38595e-009 FROM 1.5e-010 TO 2.53595e-009


Date: Tue Apr 12 02:12:29 2022
Total elapsed time: 0.224 seconds.

tnom = 27
temp = 27
method = modified trap
totiter = 3621
traniter = 3605
tranpoints = 1582
accept = 1410
rejected = 172
matrix size = 44
fillins = 0
solver = Normal
Matrix Compiler1: 4.63 KB object code size  1.6/0.9/[0.4]
Matrix Compiler2: off  [0.8]/1.1/0.9

