Circuit: *** SPICE deck for cell Gate6S2_sim{sch} from library SCL

Vg: both pins shorted together -- ignoring.
Warning: toxe, toxp and dtox all given and toxe != toxp + dtox; dtox ignored.
Direct Newton iteration for .op point succeeded.

tpdr=6.35292e-010 FROM 5.25e-009 TO 5.88529e-009
tpdf=5.14507e-010 FROM 1.5e-010 TO 6.64507e-010


Date: Tue Apr 12 00:21:25 2022
Total elapsed time: 0.392 seconds.

tnom = 27
temp = 27
method = modified trap
totiter = 4044
traniter = 4027
tranpoints = 1509
accept = 1359
rejected = 150
matrix size = 71
fillins = 0
solver = Normal
Matrix Compiler1: 8.81 KB object code size  2.9/1.3/[0.7]
Matrix Compiler2: 8.96 KB object code size  1.2/1.3/[0.9]

