Circuit: *** SPICE deck for cell Gate3S1_sim{sch} from library SCL

Vg: both pins shorted together -- ignoring.
Warning: toxe, toxp and dtox all given and toxe != toxp + dtox; dtox ignored.
Direct Newton iteration for .op point succeeded.

tpdr=9.20569e-010 FROM 5.25e-009 TO 6.17057e-009
tpdf=2.1994e-009 FROM 1.5e-010 TO 2.3494e-009


Date: Mon Apr 11 17:54:54 2022
Total elapsed time: 0.172 seconds.

tnom = 27
temp = 27
method = modified trap
totiter = 3363
traniter = 3347
tranpoints = 1463
accept = 1335
rejected = 128
matrix size = 44
fillins = 0
solver = Normal
Matrix Compiler1: 4.63 KB object code size  1.4/0.6/[0.3]
Matrix Compiler2: 5.03 KB object code size  0.5/0.7/[0.5]

