Circuit: *** SPICE deck for cell Gate7S1_sim{sch} from library SCL

Vg: both pins shorted together -- ignoring.
Warning: toxe, toxp and dtox all given and toxe != toxp + dtox; dtox ignored.
Direct Newton iteration for .op point succeeded.

tpdr=7.78366e-010 FROM 5.25e-009 TO 6.02837e-009
tpdf=3.61782e-009 FROM 1.5e-010 TO 3.76782e-009


Date: Tue Apr 12 00:32:51 2022
Total elapsed time: 0.203 seconds.

tnom = 27
temp = 27
method = modified trap
totiter = 3114
traniter = 3091
tranpoints = 1370
accept = 1286
rejected = 84
matrix size = 73
fillins = 0
solver = Normal
Matrix Compiler1: 9.11 KB object code size  2.9/1.2/[0.7]
Matrix Compiler2: 9.16 KB object code size  1.1/1.3/[0.9]

