Circuit: *** SPICE deck for cell Gate1S2_sim{sch} from library SCL

Vg: both pins shorted together -- ignoring.
Warning: toxe, toxp and dtox all given and toxe != toxp + dtox; dtox ignored.
Direct Newton iteration for .op point succeeded.

tpdr=2.08778e-010 FROM 5.25e-009 TO 5.45878e-009
tpdf=2.43847e-010 FROM 1.5e-010 TO 3.93847e-010


Date: Mon Apr 11 15:54:33 2022
Total elapsed time: 0.268 seconds.

tnom = 27
temp = 27
method = modified trap
totiter = 3544
traniter = 3531
tranpoints = 1501
accept = 1348
rejected = 153
matrix size = 22
fillins = 0
solver = Normal
Matrix Compiler1: 2.20 KB object code size  0.8/0.3/[0.2]
Matrix Compiler2: 2.38 KB object code size  0.3/0.4/[0.3]

