Circuit: *** SPICE deck for cell Gate1S4_sim{sch} from library SCL

Vg: both pins shorted together -- ignoring.
Warning: toxe, toxp and dtox all given and toxe != toxp + dtox; dtox ignored.
Direct Newton iteration for .op point succeeded.

tpdr=1.80126e-010 FROM 5.25e-009 TO 5.43013e-009
tpdf=1.93835e-010 FROM 1.5e-010 TO 3.43835e-010


Date: Tue Apr 12 00:12:47 2022
Total elapsed time: 0.093 seconds.

tnom = 27
temp = 27
method = modified trap
totiter = 3552
traniter = 3539
tranpoints = 1511
accept = 1377
rejected = 134
matrix size = 22
fillins = 0
solver = Normal
Matrix Compiler1: 2.20 KB object code size  0.8/0.3/[0.2]
Matrix Compiler2: 2.38 KB object code size  0.3/0.4/[0.2]

