Circuit: *** SPICE deck for cell Gate5S2_sim{sch} from library SCL

Vg: both pins shorted together -- ignoring.
Warning: toxe, toxp and dtox all given and toxe != toxp + dtox; dtox ignored.
Direct Newton iteration for .op point succeeded.

tpdr=9.01626e-010 FROM 5.25e-009 TO 6.15163e-009
tpdf=1.86062e-009 FROM 1.5e-010 TO 2.01062e-009


Date: Tue Apr 12 22:08:30 2022
Total elapsed time: 0.206 seconds.

tnom = 27
temp = 27
method = modified trap
totiter = 3750
traniter = 3726
tranpoints = 1582
accept = 1425
rejected = 157
matrix size = 55
fillins = 0
solver = Normal
Matrix Compiler1: 5.88 KB object code size  2.2/0.8/[0.5]
Matrix Compiler2: 6.41 KB object code size  0.7/1.0/[0.6]

