Circuit: *** SPICE deck for cell Gate6S1_sim{sch} from library SCL

Vg: both pins shorted together -- ignoring.
Warning: toxe, toxp and dtox all given and toxe != toxp + dtox; dtox ignored.
Direct Newton iteration for .op point succeeded.

tpdr=7.73857e-010 FROM 5.25e-009 TO 6.02386e-009
tpdf=5.92301e-010 FROM 1.5e-010 TO 7.42301e-010


Date: Tue Apr 12 00:17:08 2022
Total elapsed time: 0.250 seconds.

tnom = 27
temp = 27
method = modified trap
totiter = 3927
traniter = 3909
tranpoints = 1471
accept = 1323
rejected = 148
matrix size = 71
fillins = 0
solver = Normal
Matrix Compiler1: 8.81 KB object code size  2.9/1.3/[0.6]
Matrix Compiler2: 8.96 KB object code size  1.2/1.3/[0.8]

