Circuit: *** SPICE deck for cell Gate1S1_sim{sch} from library SCL

Vg: both pins shorted together -- ignoring.
Warning: toxe, toxp and dtox all given and toxe != toxp + dtox; dtox ignored.
Direct Newton iteration for .op point succeeded.

tpdr=3.38305e-010 FROM 5.25e-009 TO 5.5883e-009
tpdf=3.49901e-010 FROM 1.5e-010 TO 4.99901e-010


Date: Mon Apr 11 15:35:04 2022
Total elapsed time: 0.094 seconds.

tnom = 27
temp = 27
method = modified trap
totiter = 3144
traniter = 3131
tranpoints = 1425
accept = 1303
rejected = 122
matrix size = 22
fillins = 0
solver = Normal
Matrix Compiler1: 2.20 KB object code size  0.7/0.3/[0.2]
Matrix Compiler2: 2.38 KB object code size  0.3/0.4/[0.2]

