Circuit: *** SPICE deck for cell Gate2S2_sim{sch} from library SCL

Vg: both pins shorted together -- ignoring.
Warning: toxe, toxp and dtox all given and toxe != toxp + dtox; dtox ignored.
Direct Newton iteration for .op point succeeded.

tpdr=2.74403e-010 FROM 5.25e-009 TO 5.5244e-009
tpdf=2.66349e-010 FROM 1.5e-010 TO 4.16349e-010


Date: Tue Apr 12 22:08:19 2022
Total elapsed time: 0.130 seconds.

tnom = 27
temp = 27
method = modified trap
totiter = 3229
traniter = 3217
tranpoints = 1407
accept = 1288
rejected = 119
matrix size = 44
fillins = 0
solver = Normal
Matrix Compiler1: 4.74 KB object code size  1.7/0.6/[0.3]
Matrix Compiler2: 5.12 KB object code size  0.6/0.8/[0.4]

