Circuit: *** SPICE deck for cell Gate3S2_sim{sch} from library SCL

Vg: both pins shorted together -- ignoring.
Warning: toxe, toxp and dtox all given and toxe != toxp + dtox; dtox ignored.
Direct Newton iteration for .op point succeeded.

tpdr=8.07047e-010 FROM 5.25e-009 TO 6.05705e-009
tpdf=2.07807e-009 FROM 1.5e-010 TO 2.22807e-009


Date: Mon Apr 11 17:56:11 2022
Total elapsed time: 0.201 seconds.

tnom = 27
temp = 27
method = modified trap
totiter = 3630
traniter = 3615
tranpoints = 1579
accept = 1413
rejected = 166
matrix size = 44
fillins = 0
solver = Normal
Matrix Compiler1: 4.63 KB object code size  1.4/0.6/[0.4]
Matrix Compiler2: 5.03 KB object code size  0.6/0.7/[0.4]

