Circuit: *** SPICE deck for cell Gate2S1_sim{sch} from library SCL

Vg: both pins shorted together -- ignoring.
Warning: toxe, toxp and dtox all given and toxe != toxp + dtox; dtox ignored.
Direct Newton iteration for .op point succeeded.

tpdr=4.11347e-010 FROM 5.25e-009 TO 5.66135e-009
tpdf=3.42386e-010 FROM 1.5e-010 TO 4.92386e-010


Date: Tue Apr 12 00:01:34 2022
Total elapsed time: 0.197 seconds.

tnom = 27
temp = 27
method = modified trap
totiter = 3315
traniter = 3302
tranpoints = 1456
accept = 1312
rejected = 144
matrix size = 44
fillins = 0
solver = Normal
Matrix Compiler1: 4.74 KB object code size  1.7/0.7/[0.4]
Matrix Compiler2: 5.12 KB object code size  0.7/0.9/[0.4]

