Circuit: *** SPICE deck for cell Gate7S1_sim{sch} from library SCL-(3)

Vg: both pins shorted together -- ignoring.
Limiting rise time of source vw to 5e-010
Limiting fall time of source vw to 5e-010
Warning: toxe, toxp and dtox all given and toxe != toxp + dtox; dtox ignored.
Direct Newton iteration for .op point succeeded.

tpdr=9.46438e-010 FROM 5.85e-009 TO 6.79644e-009
tpdf=3.62344e-009 FROM 3.5e-010 TO 3.97344e-009


Date: Tue Apr 12 22:47:02 2022
Total elapsed time: 0.256 seconds.

tnom = 27
temp = 27
method = modified trap
totiter = 2801
traniter = 2778
tranpoints = 1260
accept = 1193
rejected = 67
matrix size = 73
fillins = 0
solver = Normal
Matrix Compiler1: 9.11 KB object code size  2.9/1.8/[0.7]
Matrix Compiler2: 9.16 KB object code size  1.4/1.6/[1.3]

