Circuit: *** SPICE deck for cell Gate4S1_sim{sch} from library SCL-(3)

Vg: both pins shorted together -- ignoring.
Limiting rise time of source vw to 5e-010
Limiting fall time of source vw to 5e-010
Warning: toxe, toxp and dtox all given and toxe != toxp + dtox; dtox ignored.
Direct Newton iteration for .op point succeeded.

tpdr=8.54881e-010 FROM 5.85e-009 TO 6.70488e-009
tpdf=1.07278e-009 FROM 3.5e-010 TO 1.42278e-009


Date: Tue Apr 12 22:45:54 2022
Total elapsed time: 0.332 seconds.

tnom = 27
temp = 27
method = modified trap
totiter = 2989
traniter = 2976
tranpoints = 1277
accept = 1200
rejected = 77
matrix size = 55
fillins = 0
solver = Normal
Matrix Compiler1: 6.24 KB object code size  2.0/1.1/[0.5]
Matrix Compiler2: 6.52 KB object code size  1.0/1.3/[0.7]

