Circuit: *** SPICE deck for cell Gate3S1_sim{sch} from library SCL

Vg: both pins shorted together -- ignoring.
Limiting rise time of source vx to 5e-010
Limiting fall time of source vx to 5e-010
Warning: toxe, toxp and dtox all given and toxe != toxp + dtox; dtox ignored.
Direct Newton iteration for .op point succeeded.

tpdr=9.96353e-010 FROM 5.85e-009 TO 6.84635e-009
tpdf=2.16995e-009 FROM 3.5e-010 TO 2.51995e-009


Date: Tue Apr 12 22:46:19 2022
Total elapsed time: 0.240 seconds.

tnom = 27
temp = 27
method = modified trap
totiter = 2989
traniter = 2973
tranpoints = 1303
accept = 1224
rejected = 79
matrix size = 44
fillins = 0
solver = Normal
Matrix Compiler1: 4.63 KB object code size  1.3/0.6/[0.3]
Matrix Compiler2: 5.03 KB object code size  0.6/0.7/[0.5]

