Circuit: *** SPICE deck for cell Gate1S1_sim{sch} from library SCL

Vg: both pins shorted together -- ignoring.
Limiting rise time of source vx to 5e-010
Limiting fall time of source vx to 5e-010
Warning: toxe, toxp and dtox all given and toxe != toxp + dtox; dtox ignored.
Direct Newton iteration for .op point succeeded.

tpdr=4.01046e-010 FROM 5.85e-009 TO 6.25105e-009
tpdf=3.84226e-010 FROM 3.5e-010 TO 7.34226e-010


Date: Tue Apr 12 22:45:58 2022
Total elapsed time: 0.199 seconds.

tnom = 27
temp = 27
method = modified trap
totiter = 2773
traniter = 2760
tranpoints = 1255
accept = 1181
rejected = 74
matrix size = 22
fillins = 0
solver = Normal
Matrix Compiler1: 2.20 KB object code size  0.8/0.3/[0.2]
Matrix Compiler2: 2.38 KB object code size  0.5/0.4/[0.3]

