Circuit: *** SPICE deck for cell Gate4S2_sim{sch} from library SCL-(3)

Vg: both pins shorted together -- ignoring.
Limiting rise time of source vw to 5e-010
Limiting fall time of source vw to 5e-010
Warning: toxe, toxp and dtox all given and toxe != toxp + dtox; dtox ignored.
Direct Newton iteration for .op point succeeded.

tpdr=7.44421e-010 FROM 5.85e-009 TO 6.59442e-009
tpdf=9.87176e-010 FROM 3.5e-010 TO 1.33718e-009


Date: Tue Apr 12 22:46:06 2022
Total elapsed time: 0.410 seconds.

tnom = 27
temp = 27
method = modified trap
totiter = 3106
traniter = 3093
tranpoints = 1323
accept = 1223
rejected = 100
matrix size = 55
fillins = 0
solver = Normal
Matrix Compiler1: 6.24 KB object code size  2.0/1.2/[0.5]
Matrix Compiler2: 6.52 KB object code size  1.0/1.3/[0.9]

