Circuit: *** SPICE deck for cell Gate7S2_sim{sch} from library SCL-(3)

Vg: both pins shorted together -- ignoring.
Limiting rise time of source vw to 5e-010
Limiting fall time of source vw to 5e-010
Warning: toxe, toxp and dtox all given and toxe != toxp + dtox; dtox ignored.
Direct Newton iteration for .op point succeeded.

tpdr=9.11171e-010 FROM 5.85e-009 TO 6.76117e-009
tpdf=3.53106e-009 FROM 3.5e-010 TO 3.88106e-009


Date: Tue Apr 12 22:47:15 2022
Total elapsed time: 0.440 seconds.

tnom = 27
temp = 27
method = modified trap
totiter = 2892
traniter = 2870
tranpoints = 1302
accept = 1217
rejected = 85
matrix size = 73
fillins = 0
solver = Normal
Matrix Compiler1: 9.11 KB object code size  2.5/1.5/[0.7]
Matrix Compiler2: off  [1.3]/1.8/1.5

