Circuit: *** SPICE deck for cell Gate5S1_sim{sch} from library SCL

Vg: both pins shorted together -- ignoring.
Limiting rise time of source vz to 5e-010
Limiting fall time of source vz to 5e-010
Warning: toxe, toxp and dtox all given and toxe != toxp + dtox; dtox ignored.
Direct Newton iteration for .op point succeeded.

tpdr=1.08673e-009 FROM 5.85e-009 TO 6.93673e-009
tpdf=1.90967e-009 FROM 3.5e-010 TO 2.25967e-009


Date: Tue Apr 12 22:07:33 2022
Total elapsed time: 0.159 seconds.

tnom = 27
temp = 27
method = modified trap
totiter = 3147
traniter = 3122
tranpoints = 1324
accept = 1234
rejected = 90
matrix size = 55
fillins = 0
solver = Normal
Matrix Compiler1: 5.88 KB object code size  2.1/0.8/[0.5]
Matrix Compiler2: 6.41 KB object code size  0.7/0.9/[0.6]

