Circuit: *** SPICE deck for cell Gate6S2_sim{sch} from library SCL-(3)

Vg: both pins shorted together -- ignoring.
Limiting rise time of source vx to 5e-010
Limiting fall time of source vx to 5e-010
Warning: toxe, toxp and dtox all given and toxe != toxp + dtox; dtox ignored.
Direct Newton iteration for .op point succeeded.

tpdr=6.7976e-010 FROM 5.85e-009 TO 6.52976e-009
tpdf=6.5005e-010 FROM 3.5e-010 TO 1.00005e-009


Date: Tue Apr 12 22:46:39 2022
Total elapsed time: 0.473 seconds.

tnom = 27
temp = 27
method = modified trap
totiter = 3669
traniter = 3652
tranpoints = 1384
accept = 1254
rejected = 130
matrix size = 71
fillins = 0
solver = Normal
Matrix Compiler1: 8.81 KB object code size  2.7/1.6/[0.7]
Matrix Compiler2: 8.96 KB object code size  1.4/1.7/[1.3]

