Circuit: *** SPICE deck for cell Gate6S2_sim{sch} from library SCL

Vg: both pins shorted together -- ignoring.
Limiting rise time of source vx to 5e-010
Limiting fall time of source vx to 5e-010
Warning: toxe, toxp and dtox all given and toxe != toxp + dtox; dtox ignored.
Direct Newton iteration for .op point succeeded.

tpdr=8.07845e-010 FROM 5.85e-009 TO 6.65785e-009
tpdf=7.28261e-010 FROM 3.5e-010 TO 1.07826e-009


Date: Tue Apr 12 14:47:02 2022
Total elapsed time: 0.312 seconds.

tnom = 27
temp = 27
method = modified trap
totiter = 3810
traniter = 3792
tranpoints = 1446
accept = 1290
rejected = 156
matrix size = 71
fillins = 0
solver = Normal
Matrix Compiler1: 8.81 KB object code size  2.8/1.1/[0.6]
Matrix Compiler2: 8.96 KB object code size  1.0/1.3/[0.8]

