Circuit: *** SPICE deck for cell Gate1S4_sim{sch} from library SCL

Vg: both pins shorted together -- ignoring.
Limiting rise time of source vx to 5e-010
Limiting fall time of source vx to 5e-010
Warning: toxe, toxp and dtox all given and toxe != toxp + dtox; dtox ignored.
Direct Newton iteration for .op point succeeded.

tpdr=2.82408e-010 FROM 5.85e-009 TO 6.13241e-009
tpdf=2.90908e-010 FROM 3.5e-010 TO 6.40908e-010


Date: Tue Apr 12 14:46:12 2022
Total elapsed time: 0.112 seconds.

tnom = 27
temp = 27
method = modified trap
totiter = 3343
traniter = 3331
tranpoints = 1461
accept = 1318
rejected = 143
matrix size = 22
fillins = 0
solver = Normal
Matrix Compiler1: 2.20 KB object code size  0.8/0.3/[0.2]
Matrix Compiler2: 2.38 KB object code size  0.3/0.4/[0.3]

