Circuit: *** SPICE deck for cell Gate7S2_sim{sch} from library SCL

Vg: both pins shorted together -- ignoring.
Limiting rise time of source vw to 5e-010
Limiting fall time of source vw to 5e-010
Warning: toxe, toxp and dtox all given and toxe != toxp + dtox; dtox ignored.
Direct Newton iteration for .op point succeeded.

tpdr=9.4829e-010 FROM 5.85e-009 TO 6.79829e-009
tpdf=3.61108e-009 FROM 3.5e-010 TO 3.96108e-009


Date: Tue Apr 12 14:47:15 2022
Total elapsed time: 0.203 seconds.

tnom = 27
temp = 27
method = modified trap
totiter = 2899
traniter = 2877
tranpoints = 1306
accept = 1220
rejected = 86
matrix size = 73
fillins = 0
solver = Normal
Matrix Compiler1: 9.11 KB object code size  2.9/1.1/[0.7]
Matrix Compiler2: 9.16 KB object code size  1.0/1.3/[0.9]

