Circuit: *** SPICE deck for cell Gate2S2_sim{sch} from library SCL

Vg: both pins shorted together -- ignoring.
Limiting rise time of source vx to 5e-010
Limiting fall time of source vx to 5e-010
Warning: toxe, toxp and dtox all given and toxe != toxp + dtox; dtox ignored.
Direct Newton iteration for .op point succeeded.

tpdr=4.73174e-010 FROM 5.85e-009 TO 6.32317e-009
tpdf=3.67606e-010 FROM 3.5e-010 TO 7.17606e-010


Date: Tue Apr 12 21:55:47 2022
Total elapsed time: 0.152 seconds.

tnom = 27
temp = 27
method = modified trap
totiter = 3206
traniter = 3194
tranpoints = 1389
accept = 1246
rejected = 143
matrix size = 44
fillins = 0
solver = Normal
Matrix Compiler1: 4.74 KB object code size  1.6/0.6/[0.4]
Matrix Compiler2: 5.12 KB object code size  0.6/0.7/[0.4]

