Circuit: *** SPICE deck for cell Gate2S2_sim{sch} from library SCL

Vg: both pins shorted together -- ignoring.
Warning: toxe, toxp and dtox all given and toxe != toxp + dtox; dtox ignored.
Direct Newton iteration for .op point succeeded.

tpdr=7.18109e-010 FROM 5.7e-009 TO 6.41811e-009
tpdf=5.05398e-010 FROM 3e-010 TO 8.05398e-010


Date: Tue Apr 12 22:12:53 2022
Total elapsed time: 0.141 seconds.

tnom = 27
temp = 27
method = modified trap
totiter = 3256
traniter = 3244
tranpoints = 1409
accept = 1271
rejected = 138
matrix size = 44
fillins = 0
solver = Normal
Matrix Compiler1: 4.74 KB object code size  1.6/0.6/[0.3]
Matrix Compiler2: 5.12 KB object code size  0.6/0.7/[0.4]

