Circuit: *** SPICE deck for cell Gate3S1_sim{sch} from library SCL

Vg: both pins shorted together -- ignoring.
Warning: toxe, toxp and dtox all given and toxe != toxp + dtox; dtox ignored.
Direct Newton iteration for .op point succeeded.

tpdr=1.49949e-009 FROM 5.7e-009 TO 7.19949e-009
tpdf=2.75747e-009 FROM 3e-010 TO 3.05747e-009


Date: Tue Apr 12 02:29:29 2022
Total elapsed time: 0.222 seconds.

tnom = 27
temp = 27
method = modified trap
totiter = 3080
traniter = 3064
tranpoints = 1340
accept = 1226
rejected = 114
matrix size = 44
fillins = 0
solver = Normal
Matrix Compiler1: 4.63 KB object code size  1.5/1.0/[0.4]
Matrix Compiler2: 5.03 KB object code size  0.9/1.1/[0.6]

