Circuit: *** SPICE deck for cell Gate7S1_sim{sch} from library SCL

Vg: both pins shorted together -- ignoring.
Warning: toxe, toxp and dtox all given and toxe != toxp + dtox; dtox ignored.
Direct Newton iteration for .op point succeeded.

tpdr=8.4733e-010 FROM 5.7e-009 TO 6.54733e-009
tpdf=4.09294e-009 FROM 3e-010 TO 4.39294e-009


Date: Tue Apr 12 02:31:05 2022
Total elapsed time: 0.315 seconds.

tnom = 27
temp = 27
method = modified trap
totiter = 2850
traniter = 2827
tranpoints = 1282
accept = 1197
rejected = 85
matrix size = 73
fillins = 0
solver = Normal
Matrix Compiler1: 9.11 KB object code size  2.8/2.5/[0.8]
Matrix Compiler2: off  [1.4]/2.0/1.7

