Circuit: *** SPICE deck for cell Gate3S2_sim{sch} from library SCL

Vg: both pins shorted together -- ignoring.
Warning: toxe, toxp and dtox all given and toxe != toxp + dtox; dtox ignored.
Direct Newton iteration for .op point succeeded.

tpdr=1.20077e-009 FROM 5.7e-009 TO 6.90077e-009
tpdf=2.35757e-009 FROM 3e-010 TO 2.65757e-009


Date: Tue Apr 12 02:29:43 2022
Total elapsed time: 0.324 seconds.

tnom = 27
temp = 27
method = modified trap
totiter = 3205
traniter = 3189
tranpoints = 1391
accept = 1266
rejected = 125
matrix size = 44
fillins = 0
solver = Normal
Matrix Compiler1: 4.63 KB object code size  1.6/0.9/[0.4]
Matrix Compiler2: off  [0.7]/1.3/1.3

