Circuit: *** SPICE deck for cell Gate4S2_sim{sch} from library SCL

Vg: both pins shorted together -- ignoring.
Warning: toxe, toxp and dtox all given and toxe != toxp + dtox; dtox ignored.
Direct Newton iteration for .op point succeeded.

tpdr=1.06898e-009 FROM 5.7e-009 TO 6.76898e-009
tpdf=1.23538e-009 FROM 3e-010 TO 1.53538e-009


Date: Tue Apr 12 02:30:06 2022
Total elapsed time: 0.224 seconds.

tnom = 27
temp = 27
method = modified trap
totiter = 3272
traniter = 3260
tranpoints = 1397
accept = 1269
rejected = 128
matrix size = 55
fillins = 0
solver = Normal
Matrix Compiler1: 6.24 KB object code size  1.8/2.3/[0.5]
Matrix Compiler2: 6.52 KB object code size  1.0/1.5/[0.6]

