Circuit: *** SPICE deck for cell Gate1S1_sim{sch} from library SCL

Vg: both pins shorted together -- ignoring.
Warning: toxe, toxp and dtox all given and toxe != toxp + dtox; dtox ignored.
Direct Newton iteration for .op point succeeded.

tpdr=1.1412e-009 FROM 5.7e-009 TO 6.8412e-009
tpdf=9.0628e-010 FROM 3e-010 TO 1.20628e-009


Date: Tue Apr 12 02:28:35 2022
Total elapsed time: 0.248 seconds.

tnom = 27
temp = 27
method = modified trap
totiter = 2895
traniter = 2883
tranpoints = 1320
accept = 1207
rejected = 113
matrix size = 22
fillins = 0
solver = Normal
Matrix Compiler1: 2.20 KB object code size  0.7/0.4/[0.2]
Matrix Compiler2: 2.38 KB object code size  0.4/0.7/[0.3]

