Circuit: *** SPICE deck for cell Gate6S1_sim{sch} from library SCL

Vg: both pins shorted together -- ignoring.
Warning: toxe, toxp and dtox all given and toxe != toxp + dtox; dtox ignored.
Direct Newton iteration for .op point succeeded.

tpdr=1.53989e-009 FROM 5.7e-009 TO 7.23989e-009
tpdf=1.14219e-009 FROM 3e-010 TO 1.44219e-009


Date: Tue Apr 12 02:30:21 2022
Total elapsed time: 0.317 seconds.

tnom = 27
temp = 27
method = modified trap
totiter = 3504
traniter = 3483
tranpoints = 1329
accept = 1226
rejected = 103
matrix size = 71
fillins = 0
solver = Normal
Matrix Compiler1: 8.81 KB object code size  2.8/1.6/[0.7]
Matrix Compiler2: off  [1.4]/1.9/1.7

